<?xml version="1.0"?>
<routes>
	<route id="1" map="Town01">
		<waypoint x="121.72344970703125" y="59.17844009399414" z="0.0" pitch="0.0" roll="0.0" yaw="0.0670308843255043" />
		<waypoint x="165.14996337890625" y="59.229248046875" z="0.0" pitch="0.0" roll="0.0" yaw="0.0670308843255043" />
		<waypoint x="249.13783264160156" y="59.3275032043457" z="0.0" pitch="0.0" roll="0.0" yaw="0.0670308843255043" />
		<waypoint x="315.4411315917969" y="59.40507507324219" z="0.0" pitch="0.0" roll="0.0" yaw="0.0670308843255043" />
		<waypoint x="334.6475524902344" y="75.26239013671875" z="0.0" pitch="0.0" roll="0.0" yaw="89.9791030883789" />
		<waypoint x="334.6621398925781" y="115.21650695800781" z="0.0" pitch="0.0" roll="0.0" yaw="89.9791030883789" />
		<waypoint x="312.11029052734375" y="129.5294189453125" z="0.0" pitch="360.0" roll="0.0" yaw="180.18728637695312" />
		<waypoint x="254.0718994140625" y="129.33969116210938" z="0.0" pitch="360.0" roll="0.0" yaw="180.18728637695312" />
		<waypoint x="130.1896514892578" y="128.9347381591797" z="0.0" pitch="360.0" roll="0.0" yaw="180.18728637695312" />
		<waypoint x="104.88580322265625" y="128.85202026367188" z="0.0" pitch="360.0" roll="0.0" yaw="180.18728637695312" />
		<waypoint x="92.3873062133789" y="113.84988403320312" z="0.0" pitch="360.0" roll="0.0" yaw="269.99127197265625" />
		<waypoint x="92.3824462890625" y="81.85515594482422" z="0.0" pitch="360.0" roll="0.0" yaw="269.99127197265625" />
	</route>
	<route id="10" map="Town03">
		<waypoint x="-39.87355041503906" y="207.63058471679688" z="0.0" pitch="360.0" roll="0.0" yaw="359.8570556640625" />
		<waypoint x="47.5295295715332" y="207.41250610351562" z="0.16432693600654602" pitch="360.89453125" roll="0.0" yaw="359.8570556640625" />
		<waypoint x="161.556396484375" y="206.8970947265625" z="2.664283514022827" pitch="361.2748107910156" roll="0.0" yaw="356.16259765625" />
		<waypoint x="191.97679138183594" y="200.49798583984375" z="2.700406789779663" pitch="358.8572998046875" roll="0.0" yaw="340.07879638671875" />
		<waypoint x="242.28762817382812" y="137.09820556640625" z="1.0511778593063354" pitch="358.8267822265625" roll="0.0" yaw="271.3932189941406" />
		<waypoint x="243.48095703125" y="88.03263854980469" z="0.15211066603660583" pitch="359.3604736328125" roll="0.0" yaw="271.3932189941406" />
		<waypoint x="219.31919860839844" y="58.762779235839844" z="0.0" pitch="0.0" roll="0.0" yaw="179.85260009765625" />
		<waypoint x="146.93035888671875" y="58.94900894165039" z="0.0" pitch="0.0" roll="0.0" yaw="179.85260009765625" />
		<waypoint x="112.12584686279297" y="59.038551330566406" z="0.0" pitch="0.0" roll="0.0" yaw="179.85260009765625" />
		<waypoint x="91.26825714111328" y="54.402408599853516" z="0.0" pitch="0.0" roll="0.0" yaw="-145.50584411621094" />
		<waypoint x="72.78268432617188" y="48.378929138183594" z="0.0" pitch="0.0" roll="0.0" yaw="-195.3335723876953" />
		<waypoint x="63.88011932373047" y="59.31227493286133" z="0.0" pitch="0.0" roll="0.0" yaw="93.08844757080078" />
		<waypoint x="76.78833770751953" y="72.34236907958984" z="0.0" pitch="0.0" roll="0.0" yaw="1.4233202934265137" />
		<waypoint x="91.55643463134766" y="65.58697509765625" z="0.0" pitch="0.0" roll="0.0" yaw="-36.26813507080078" />
		<waypoint x="114.11444091796875" y="62.533443450927734" z="0.0" pitch="360.0" roll="0.0" yaw="359.85260009765625" />
		<waypoint x="142.92074584960938" y="62.45933532714844" z="0.0" pitch="360.0" roll="0.0" yaw="359.85260009765625" />
		<waypoint x="167.17340087890625" y="72.84417724609375" z="0.1136799156665802" pitch="360.3625793457031" roll="0.0" yaw="89.9891586303711" />
		<waypoint x="167.1761474609375" y="87.36922454833984" z="0.20559129118919373" pitch="360.3625793457031" roll="0.0" yaw="89.9891586303711" />
		<waypoint x="160.09878540039062" y="113.73860931396484" z="0.3887357711791992" pitch="360.3625793457031" roll="0.0" yaw="125.58922576904297" />
		<waypoint x="124.38005065917969" y="129.31776428222656" z="0.3361670970916748" pitch="359.62225341796875" roll="0.0" yaw="179.18280029296875" />
		<waypoint x="68.98763275146484" y="130.10787963867188" z="0.012321965768933296" pitch="359.8666687011719" roll="0.0" yaw="179.18280029296875" />
		<waypoint x="23.185640335083008" y="130.76119995117188" z="0.0" pitch="360.0" roll="0.0" yaw="179.18280029296875" />
		<waypoint x="-20.466594696044922" y="130.93162536621094" z="0.0" pitch="360.0" roll="0.0" yaw="178.7032012939453" />
		<waypoint x="-56.9246826171875" y="131.75694274902344" z="0.0" pitch="360.0" roll="0.0" yaw="178.7032012939453" />
		<waypoint x="-74.04156494140625" y="118.57500457763672" z="0.08560112863779068" pitch="360.57537841796875" roll="0.0" yaw="269.84375" />
		<waypoint x="-74.31430053710938" y="18.5739688873291" z="0.005705162417143583" pitch="359.8079833984375" roll="0.0" yaw="269.84375" />
		<waypoint x="-117.23112487792969" y="-3.2201461791992188" z="0.0" pitch="0.0" roll="0.0" yaw="-179.7053985595703" />
		<waypoint x="-132.4842987060547" y="-3.298576593399048" z="0.0" pitch="0.0" roll="0.0" yaw="-179.7053985595703" />
		<waypoint x="-149.0205078125" y="23.499652862548828" z="0.0" pitch="0.0" roll="0.0" yaw="90.02985382080078" />
		<waypoint x="-149.03555297851562" y="52.38810348510742" z="0.0" pitch="0.0" roll="0.0" yaw="90.02985382080078" />
	</route>
	<route id="4" map="Town01"> 
		<waypoint x="56.90949630737305" y="1.644068956375122" z="0.0" pitch="360.0" roll="0.0" yaw="0.029052734375" />
		<waypoint x="108.8623046875" y="1.6704164743423462" z="0.0" pitch="360.0" roll="0.0" yaw="0.029052734375" />
		<waypoint x="134.96644592285156" y="1.6836549043655396" z="0.0" pitch="360.0" roll="0.0" yaw="0.029052734375" />
		<waypoint x="153.95574951171875" y="12.585290908813477" z="0.0" pitch="0.0" roll="0.0" yaw="89.93091583251953" />
		<waypoint x="153.98809814453125" y="39.41703414916992" z="0.0" pitch="0.0" roll="0.0" yaw="89.93091583251953" />
		<waypoint x="139.60507202148438" y="55.19935607910156" z="0.0" pitch="360.0" roll="0.0" yaw="180.06703186035156" />
		<waypoint x="108.625244140625" y="55.16311264038086" z="0.0" pitch="360.0" roll="0.0" yaw="180.06703186035156" />
		<waypoint x="88.3819351196289" y="78.5218505859375" z="0.0" pitch="0.0" roll="0.0" yaw="89.99128723144531" />
		<waypoint x="88.38763427734375" y="116.0037612915039" z="0.0" pitch="0.0" roll="0.0" yaw="89.99128723144531" />
		<waypoint x="88.3920669555664" y="145.12017822265625" z="0.0" pitch="0.0" roll="0.0" yaw="89.99128723144531" />
		<waypoint x="88.39686584472656" y="176.69561767578125" z="0.0" pitch="0.0" roll="0.0" yaw="89.99128723144531" />
		<waypoint x="100.69414520263672" y="199.32009887695312" z="0.0" pitch="0.0" roll="0.0" yaw="-0.16769057512283325" />
		<waypoint x="182.24264526367188" y="199.08143615722656" z="0.0" pitch="0.0" roll="0.0" yaw="-0.16769057512283325" />
		<waypoint x="310.5677185058594" y="198.7058563232422" z="0.0" pitch="0.0" roll="0.0" yaw="-0.16769057512283325" />
	</route>

	<route id="13" map="Town03">
		<waypoint x="64.205078125" y="-133.39605712890625" z="7.449135780334473" pitch="366.3597106933594" roll="0.0" yaw="1.227264404296875" />
		<waypoint x="97.0370864868164" y="-132.6927032470703" z="8.0" pitch="360.0" roll="0.0" yaw="1.227264404296875" />
		<waypoint x="133.50799560546875" y="-131.911376953125" z="8.0" pitch="360.0" roll="0.0" yaw="1.227264404296875" />
		<waypoint x="154.28404235839844" y="-149.7969970703125" z="6.728227138519287" pitch="346.6910705566406" roll="0.0" yaw="270.9964904785156" />
		<waypoint x="133.49400329589844" y="-204.65277099609375" z="0.0" pitch="0.0" roll="0.0" yaw="-178.56045532226562" />
		<waypoint x="103.8073959350586" y="-205.3988037109375" z="0.0" pitch="0.0" roll="0.0" yaw="-178.56045532226562" />
		<waypoint x="68.62142944335938" y="-206.28302001953125" z="0.0" pitch="0.0" roll="0.0" yaw="-178.56045532226562" />
		<waypoint x="29.849502563476562" y="-207.2573699951172" z="0.0" pitch="0.0" roll="0.0" yaw="-178.56045532226562" />
		<waypoint x="-3.231048107147217" y="-172.2825469970703" z="0.0" pitch="360.0" roll="0.0" yaw="91.41353607177734" />
		<waypoint x="-3.695570468902588" y="-153.45762634277344" z="0.0" pitch="360.0" roll="0.0" yaw="91.41353607177734" />
		<waypoint x="-4.528900623321533" y="-119.6866455078125" z="0.0" pitch="360.0" roll="0.0" yaw="91.41353607177734" />
		<waypoint x="-6.433890342712402" y="-42.56543731689453" z="0.0" pitch="0.0" roll="0.0" yaw="91.78050231933594" />
		<waypoint x="-9.24295425415039" y="-24.6837100982666" z="0.0" pitch="0.0" roll="0.0" yaw="115.54275512695312" />
		<waypoint x="-23.866544723510742" y="2.2745919227600098" z="0.0" pitch="0.0" roll="0.0" yaw="85.2126693725586" />
		<waypoint x="-11.800189971923828" y="20.813385009765625" z="0.0" pitch="0.0" roll="0.0" yaw="29.853103637695312" />
		<waypoint x="9.86586856842041" y="21.320919036865234" z="0.0" pitch="0.0" roll="0.0" yaw="-27.169267654418945" />
		<waypoint x="18.39687728881836" y="14.012236595153809" z="0.0" pitch="0.0" roll="0.0" yaw="-53.0938835144043" />
		<waypoint x="33.28566360473633" y="7.084145545959473" z="0.0" pitch="360.0" roll="0.0" yaw="-0.078399658203125" />
		<waypoint x="51.898704528808594" y="7.295948505401611" z="0.0" pitch="360.0" roll="0.0" yaw="0.855804443359375" />
		<waypoint x="211.59320068359375" y="9.68139934539795" z="0.0" pitch="360.0" roll="0.0" yaw="0.855804443359375" />
		<waypoint x="231.02459716796875" y="24.39344024658203" z="0.0" pitch="0.0" roll="0.0" yaw="91.3932113647461" />
		<waypoint x="229.58152770996094" y="83.72745513916016" z="0.11106355488300323" pitch="0.5464726090431213" roll="0.0" yaw="91.3932113647461" />
		<waypoint x="228.16439819335938" y="140.60789489746094" z="1.1367857456207275" pitch="1.1732286214828491" roll="0.0" yaw="93.542724609375" />
		<waypoint x="213.1387176513672" y="172.58770751953125" z="2.0130112171173096" pitch="1.1732286214828491" roll="0.0" yaw="136.79017639160156" />
		<waypoint x="171.43978881835938" y="191.5892333984375" z="2.8296637535095215" pitch="-0.3116718828678131" roll="0.0" yaw="169.72598266601562" />
		<waypoint x="92.29463958740234" y="193.30076599121094" z="1.1314163208007812" pitch="-1.274809718132019" roll="0.0" yaw="179.85704040527344" />
		<waypoint x="18.473529815673828" y="193.48497009277344" z="0.0" pitch="0.0" roll="0.0" yaw="179.85704040527344" />
		<waypoint x="-12.920023918151855" y="193.56329345703125" z="0.0" pitch="0.0" roll="0.0" yaw="179.85704040527344" />
		<waypoint x="-53.7716178894043" y="191.20181274414062" z="0.0" pitch="0.0" roll="0.0" yaw="-156.9932861328125" />
		<waypoint x="-72.272216796875" y="170.54652404785156" z="0.0" pitch="0.0" roll="0.0" yaw="250.2427978515625" />
		<waypoint x="-74.60739135742188" y="154.4359130859375" z="0.0" pitch="0.0" roll="0.0" yaw="-90.21229553222656" />
	</route>

	<route id="26" map="Town03">
		<waypoint x="-19.782339096069336" y="13.483247756958008" z="0.0" pitch="0.0" roll="0.0" yaw="54.74591064453125" />
		<waypoint x="-14.616707801818848" y="19.662822723388672" z="0.0" pitch="0.0" roll="0.0" yaw="-303.5398254394531" />
		<waypoint x="-10.459572792053223" y="34.79402542114258" z="0.0" pitch="360.0" roll="0.0" yaw="84.00189208984375" />
		<waypoint x="-9.991477966308594" y="55.58932876586914" z="0.0" pitch="0.0" roll="0.0" yaw="89.63746643066406" />
		<waypoint x="-9.673476219177246" y="105.84624481201172" z="0.0" pitch="0.0" roll="0.0" yaw="89.63746643066406" />
		<waypoint x="-9.628939628601074" y="112.88488006591797" z="0.0" pitch="0.0" roll="0.0" yaw="89.63746643066406" />
		<waypoint x="-29.619413375854492" y="131.13882446289062" z="0.0" pitch="360.0" roll="0.0" yaw="178.7032012939453" />
		<waypoint x="-54.94852066040039" y="131.7122039794922" z="0.0" pitch="360.0" roll="0.0" yaw="178.7032012939453" />
		<waypoint x="-74.05745697021484" y="112.74925994873047" z="0.15410159528255463" pitch="360.7720031738281" roll="0.0" yaw="269.84375" />
		<waypoint x="-74.31470489501953" y="18.42568588256836" z="0.0052190604619681835" pitch="359.81634521484375" roll="0.0" yaw="269.84375" />
		<waypoint x="-61.74953842163086" y="0.5651818513870239" z="0.0" pitch="360.0" roll="0.0" yaw="0.2946014404296875" />
		<waypoint x="-43.59737777709961" y="0.6585187911987305" z="0.0" pitch="360.0" roll="0.0" yaw="0.2946014404296875" />
		<waypoint x="-26.82942771911621" y="4.049452781677246" z="0.0" pitch="0.0" roll="0.0" yaw="33.571495056152344" />
		<waypoint x="-11.501896858215332" y="27.948083877563477" z="0.0" pitch="360.0" roll="0.0" yaw="79.77850341796875" />
		<waypoint x="-9.62656021118164" y="113.2608642578125" z="0.0" pitch="0.0" roll="0.0" yaw="89.63746643066406" />
		<waypoint x="-9.404424667358398" y="148.3672332763672" z="0.0" pitch="0.0" roll="0.0" yaw="89.63746643066406" />
		<waypoint x="-9.180924415588379" y="183.6891326904297" z="0.0" pitch="0.0" roll="0.0" yaw="89.63746643066406" />
		<waypoint x="-20.235055923461914" y="193.58154296875" z="0.0" pitch="0.0" roll="0.0" yaw="179.85704040527344" />
		<waypoint x="-45.00404357910156" y="193.46853637695312" z="0.0" pitch="0.0" roll="0.0" yaw="185.98472595214844" />
		<waypoint x="-61.083213806152344" y="186.8047332763672" z="0.0" pitch="0.0" roll="0.0" yaw="-140.9628143310547" />
		<waypoint x="-74.33927154541016" y="161.70071411132812" z="0.0" pitch="0.0" roll="0.0" yaw="263.451904296875" />
		<waypoint x="-74.04845428466797" y="116.04778289794922" z="0.1128615215420723" pitch="360.6606750488281" roll="0.0" yaw="269.84375" />
		<waypoint x="-74.19332885742188" y="62.92967987060547" z="0.8154828548431396" pitch="359.5606384277344" roll="0.0" yaw="269.84375" />
		<waypoint x="-74.31956481933594" y="16.64291000366211" z="0.0010689077898859978" pitch="-0.0831109955906868" roll="0.0" yaw="-90.15625762939453" />
		<waypoint x="-74.41353607177734" y="-17.815343856811523" z="-0.11938713490962982" pitch="359.3812255859375" roll="0.0" yaw="269.84375" />
		<waypoint x="-74.68866729736328" y="-118.69511413574219" z="-0.13776136934757233" pitch="360.8299560546875" roll="0.0" yaw="269.84375" />
		<waypoint x="-44.429141998291016" y="-135.7233428955078" z="0.0" pitch="360.0" roll="0.0" yaw="1.227264404296875" />
		<waypoint x="-18.777210235595703" y="-135.17379760742188" z="0.0" pitch="360.0" roll="0.0" yaw="1.227264404296875" />
		<waypoint x="6.853688716888428" y="-155.32432556152344" z="0.0" pitch="0.0" roll="0.0" yaw="-88.58646392822266" />
		<waypoint x="7.401503562927246" y="-177.52468872070312" z="0.0" pitch="0.0" roll="0.0" yaw="-88.58646392822266" />
		<waypoint x="-18.94873046875" y="-204.98255920410156" z="0.0" pitch="0.0" roll="0.0" yaw="-178.56045532226562" />
		<waypoint x="-45.018836975097656" y="-205.63771057128906" z="0.0" pitch="0.0" roll="0.0" yaw="-178.56045532226562" />
		<waypoint x="-61.390541076660156" y="-204.185546875" z="0.0" pitch="0.0" roll="0.0" yaw="-198.05747985839844" />
		<waypoint x="-83.70001220703125" y="-175.95941162109375" z="0.0" pitch="0.0" roll="0.0" yaw="-265.2980041503906" />
		<waypoint x="-84.67965698242188" y="-158.51748657226562" z="0.0" pitch="0.0" roll="0.0" yaw="92.67711639404297" />
		<waypoint x="-85.18666076660156" y="-117.94813537597656" z="-0.14836347103118896" pitch="-0.8613079786300659" roll="0.0" yaw="89.84374237060547" />
		<waypoint x="-84.99970245361328" y="-49.39560317993164" z="-0.567375659942627" pitch="0.8396051526069641" roll="0.0" yaw="89.84374237060547" />
		<waypoint x="-84.9039535522461" y="-14.287949562072754" z="-0.08459138870239258" pitch="0.5208543539047241" roll="0.0" yaw="89.84374237060547" />
		<waypoint x="-60.93339157104492" y="0.5693784952163696" z="0.0" pitch="360.0" roll="0.0" yaw="0.2946014404296875" />
		<waypoint x="-47.164615631103516" y="0.6401764154434204" z="0.0" pitch="360.0" roll="0.0" yaw="0.2946014404296875" />
		<waypoint x="-36.45035934448242" y="1.0153701305389404" z="0.0" pitch="0.0" roll="0.0" yaw="7.855984210968018" />
		<waypoint x="-20.567935943603516" y="12.294333457946777" z="0.0" pitch="0.0" roll="0.0" yaw="58.34311294555664" />
		<waypoint x="-12.261648178100586" y="24.60390853881836" z="0.0" pitch="0.0" roll="0.0" yaw="-287.427734375" />
		<waypoint x="-10.063502311706543" y="44.20654296875" z="0.0" pitch="0.0" roll="0.0" yaw="89.63746643066406" />
		<waypoint x="-9.623111724853516" y="113.80584716796875" z="0.0" pitch="0.0" roll="0.0" yaw="89.63746643066406" />
		<waypoint x="-44.86757278442383" y="131.4840087890625" z="0.0" pitch="360.0" roll="0.0" yaw="178.7032012939453" />
		<waypoint x="-56.173500061035156" y="131.7399444580078" z="0.0" pitch="360.0" roll="0.0" yaw="178.7032012939453" />
	</route>
	<route id="32" map="Town04">
		<waypoint x="269.0704650878906" y="-246.3044891357422" z="0.00433349609375" pitch="360.0" roll="0.0" yaw="359.6054992675781" />
		<waypoint x="300.98529052734375" y="-246.5242462158203" z="0.00433349609375" pitch="360.0" roll="0.0" yaw="359.6054992675781" />
		<waypoint x="315.2895812988281" y="-258.9996643066406" z="0.0043487548828125" pitch="360.0" roll="0.0" yaw="270.51092529296875" />
		<waypoint x="312.9399719238281" y="-283.4756164550781" z="0.0043487548828125" pitch="360.0" roll="0.0" yaw="253.852294921875" />
		<waypoint x="287.4882507324219" y="-310.2721862792969" z="0.0043487548828125" pitch="360.0" roll="0.0" yaw="189.25515747070312" />
		<waypoint x="266.4151306152344" y="-310.81292724609375" z="0.0043487548828125" pitch="360.0" roll="0.0" yaw="180.58978271484375" />
		<waypoint x="248.984619140625" y="-310.99237060546875" z="0.0043487548828125" pitch="360.0" roll="0.0" yaw="180.58978271484375" />
		<waypoint x="214.57583618164062" y="-311.3465576171875" z="0.0043487548828125" pitch="360.0" roll="0.0" yaw="180.58978271484375" />
		<waypoint x="191.778076171875" y="-311.1783142089844" z="0.033660888671875" pitch="0.0" roll="0.0" yaw="-179.8567352294922" />
		<waypoint x="160.05184936523438" y="-311.2235412597656" z="0.033660888671875" pitch="0.0" roll="0.0" yaw="-181.35772705078125" />
		<waypoint x="127.77545928955078" y="-305.0201721191406" z="0.033660888671875" pitch="0.0" roll="0.0" yaw="-200.40090942382812" />
		<waypoint x="96.31536102294922" y="-286.0783996582031" z="0.033660888671875" pitch="0.0" roll="0.0" yaw="-221.70245361328125" />
		<waypoint x="77.39625549316406" y="-263.79034423828125" z="0.033660888671875" pitch="0.0" roll="0.0" yaw="-237.07952880859375" />
		<waypoint x="63.925846099853516" y="-234.94784545898438" z="0.033660888671875" pitch="0.0" roll="0.0" yaw="-252.85215759277344" />
		<waypoint x="58.790828704833984" y="-202.98590087890625" z="0.033660888671875" pitch="0.0" roll="0.0" yaw="-268.8935241699219" />
		<waypoint x="58.69148254394531" y="-188.51019287109375" z="0.033660888671875" pitch="0.0" roll="0.0" yaw="90.35357666015625" />
		<waypoint x="71.52420043945312" y="-170.24945068359375" z="0.195892333984375" pitch="0.0" roll="0.0" yaw="0.3261248767375946" />
		<waypoint x="112.69795989990234" y="-170.0150909423828" z="0.195892333984375" pitch="0.0" roll="0.0" yaw="0.3261248767375946" />
		<waypoint x="131.4148712158203" y="-185.9712371826172" z="0.0386962890625" pitch="360.0" roll="0.0" yaw="272.4569396972656" />
		<waypoint x="137.35049438476562" y="-211.70291137695312" z="0.0386962890625" pitch="360.0" roll="0.0" yaw="-63.98918151855469" />
		<waypoint x="151.6375732421875" y="-230.22340393066406" z="0.0386962890625" pitch="360.0" roll="0.0" yaw="-40.845550537109375" />
		<waypoint x="182.2176513671875" y="-244.37359619140625" z="0.0386962890625" pitch="360.0" roll="0.0" yaw="-8.816879272460938" />
		<waypoint x="191.0310516357422" y="-245.1036834716797" z="0.0386962890625" pitch="360.0" roll="0.0" yaw="358.4046936035156" />
		<waypoint x="200.0151824951172" y="-231.7708740234375" z="0.01959228515625" pitch="0.0" roll="0.0" yaw="91.3144302368164" />
		<waypoint x="198.86997985839844" y="-181.860595703125" z="0.01959228515625" pitch="0.0" roll="0.0" yaw="91.3144302368164" />
		<waypoint x="211.7692108154297" y="-169.451171875" z="0.195892333984375" pitch="0.0" roll="0.0" yaw="0.3261248767375946" />
		<waypoint x="245.3657989501953" y="-169.2599334716797" z="0.195892333984375" pitch="0.0" roll="0.0" yaw="0.3261248767375946" />
		<waypoint x="268.75653076171875" y="-169.12680053710938" z="0.195892333984375" pitch="0.0" roll="0.0" yaw="0.3261248767375946" />
		<waypoint x="301.767822265625" y="-168.93890380859375" z="0.195892333984375" pitch="0.0" roll="0.0" yaw="0.3261248767375946" />
		<waypoint x="324.3397216796875" y="-168.81040954589844" z="0.195892333984375" pitch="0.0" roll="0.0" yaw="0.3261248767375946" />
		<waypoint x="340.23541259765625" y="-168.71994018554688" z="0.195892333984375" pitch="0.0" roll="0.0" yaw="0.3261248767375946" />
		<waypoint x="357.42059326171875" y="-168.6221160888672" z="0.195892333984375" pitch="0.0" roll="0.0" yaw="0.3261248767375946" />
		<waypoint x="368.80682373046875" y="-168.55731201171875" z="0.195892333984375" pitch="0.0" roll="0.0" yaw="0.3261248767375946" />
		<waypoint x="381.82220458984375" y="-153.25997924804688" z="0.0" pitch="0.0" roll="0.0" yaw="90.59859466552734" />
		<waypoint x="381.6919860839844" y="-140.7970428466797" z="0.0" pitch="0.0" roll="0.0" yaw="90.59859466552734" />
		<waypoint x="384.9174499511719" y="-114.50049591064453" z="0.0" pitch="0.0" roll="0.0" yaw="90.59859466552734" />
		<waypoint x="384.5069274902344" y="-72.79568481445312" z="0.0" pitch="360.0" roll="0.0" yaw="90.43910217285156" />
		<waypoint x="384.2105712890625" y="-34.1280632019043" z="0.0" pitch="0.0" roll="0.0" yaw="90.43910217285156" />
		<waypoint x="378.5570068359375" y="-6.723916530609131" z="0.0" pitch="0.0" roll="0.0" yaw="120.01876831054688" />
		<waypoint x="361.8473815917969" y="5.333199977874756" z="0.03513186052441597" pitch="0.3238201141357422" roll="0.0" yaw="149.4435272216797" />
		<waypoint x="307.6686096191406" y="10.060099601745605" z="1.3211320638656616" pitch="1.9857581853866577" roll="0.0" yaw="-179.02207946777344" />
		<waypoint x="255.2800750732422" y="9.165844917297363" z="3.7611031532287598" pitch="3.3505096435546875" roll="0.0" yaw="-179.02207946777344" />
		<waypoint x="182.79576110839844" y="7.928563594818115" z="7.966650009155273" pitch="2.8235442638397217" roll="0.0" yaw="-179.02207946777344" />
		<waypoint x="122.85963439941406" y="6.90547513961792" z="10.201515197753906" pitch="1.4486606121063232" roll="0.0" yaw="-179.02207946777344" />
		<waypoint x="49.19037628173828" y="6.282506942749023" z="11.0" pitch="0.0" roll="0.0" yaw="-179.76736450195312" />
		<waypoint x="-1.444108247756958" y="6.076910018920898" z="10.926908493041992" pitch="-0.5447480082511902" roll="0.0" yaw="-179.76736450195312" />
		<waypoint x="-63.26222229003906" y="5.862168312072754" z="9.915364265441895" pitch="-0.9749510884284973" roll="0.0" yaw="-179.9231719970703" />
		<waypoint x="-114.35669708251953" y="5.7936601638793945" z="8.973443984985352" pitch="-1.749235987663269" roll="0.0" yaw="-179.9231719970703" />
		<waypoint x="-178.98451232910156" y="5.70700740814209" z="5.817442893981934" pitch="-2.9702091217041016" roll="0.0" yaw="-179.9231719970703" />
		<waypoint x="-263.76251220703125" y="5.593338966369629" z="1.7683030366897583" pitch="-2.0595204830169678" roll="0.0" yaw="-179.9231719970703" />
		<waypoint x="-331.0777587890625" y="5.503083229064941" z="0.1763741374015808" pitch="-0.6504369378089905" roll="0.0" yaw="-179.9231719970703" />
		<waypoint x="-361.2178039550781" y="5.543294429779053" z="0.0002033561177086085" pitch="-0.022085964679718018" roll="0.0" yaw="179.631591796875" />
		<waypoint x="-390.1630859375" y="5.728755950927734" z="0.0" pitch="0.0" roll="0.0" yaw="178.7569580078125" />
		<waypoint x="-432.02093505859375" y="6.334071159362793" z="0.0" pitch="0.0" roll="0.0" yaw="-185.31605529785156" />
		<waypoint x="-493.97271728515625" y="39.71971893310547" z="0.0" pitch="0.0" roll="0.0" yaw="-231.3241424560547" />
		<waypoint x="-513.587158203125" y="91.11449432373047" z="0.0" pitch="0.0" roll="0.0" yaw="-266.8977966308594" />
		<waypoint x="-513.947265625" y="132.26893615722656" z="0.0" pitch="0.0" roll="0.0" yaw="90.3575210571289" />
		<waypoint x="-514.2728271484375" y="184.4401397705078" z="0.0" pitch="0.0" roll="0.0" yaw="90.3575210571289" />
		<waypoint x="-515.2552490234375" y="238.67782592773438" z="0.0" pitch="0.0" roll="0.0" yaw="89.86629486083984" />
	</route>
	<route id="44" map="Town06">
		<waypoint x="-273.4008483886719" y="52.14326477050781" z="0.0" pitch="360.0" roll="0.0" yaw="356.8175964355469" />
		<waypoint x="-233.5426025390625" y="49.9271240234375" z="0.0" pitch="360.0" roll="0.0" yaw="356.8175964355469" />
		<waypoint x="-204.55992126464844" y="48.98240280151367" z="0.0" pitch="0.0" roll="0.0" yaw="-0.10053513199090958" />
		<waypoint x="-165.30255126953125" y="48.9660758972168" z="0.0" pitch="0.0" roll="0.0" yaw="-0.023140989243984222" />
		<waypoint x="-53.431034088134766" y="48.92089080810547" z="0.0" pitch="0.0" roll="0.0" yaw="-0.023140989243984222" />
		<waypoint x="-29.660083770751953" y="48.911293029785156" z="0.0" pitch="0.0" roll="0.0" yaw="-0.023140989243984222" />
		<waypoint x="21.80780601501465" y="48.877864837646484" z="0.0" pitch="0.0" roll="0.0" yaw="-0.053955771028995514" />
		<waypoint x="57.61505889892578" y="48.844146728515625" z="0.0" pitch="0.0" roll="0.0" yaw="-0.053955771028995514" />
		<waypoint x="160.27328491210938" y="48.74747085571289" z="0.0" pitch="0.0" roll="0.0" yaw="-0.053955771028995514" />
		<waypoint x="261.3514709472656" y="48.84928512573242" z="0.0" pitch="0.0" roll="0.0" yaw="-0.02789534069597721" />
		<waypoint x="392.7347412109375" y="48.785316467285156" z="0.0" pitch="0.0" roll="0.0" yaw="-0.02789534069597721" />
		<waypoint x="444.646484375" y="48.76004409790039" z="0.0" pitch="0.0" roll="0.0" yaw="-0.02789534069597721" />
		<waypoint x="479.7275085449219" y="45.24296188354492" z="0.0" pitch="0.0" roll="0.0" yaw="-0.02789534069597721" />
		<waypoint x="531.5942993164062" y="41.717708587646484" z="0.0" pitch="0.0" roll="0.0" yaw="-0.02789534069597721" />
		<waypoint x="598.847900390625" y="48.684967041015625" z="0.0" pitch="0.0" roll="0.0" yaw="-0.027896113693714142" />
		<waypoint x="635.1583862304688" y="52.16728973388672" z="0.0" pitch="0.0" roll="0.0" yaw="-0.027896113693714142" />
		<waypoint x="666.7529296875" y="23.077362060546875" z="0.0" pitch="360.0" roll="0.0" yaw="253.85594177246094" />
		<waypoint x="655.4146728515625" y="-2.5055532455444336" z="0.0" pitch="360.0" roll="0.0" yaw="233.31712341308594" />
		<waypoint x="632.727294921875" y="-20.0108699798584" z="0.0" pitch="360.0" roll="0.0" yaw="201.9895782470703" />
		<waypoint x="598.3603515625" y="-20.478899002075195" z="0.0" pitch="0.0" roll="0.0" yaw="-179.58058166503906" />
		<waypoint x="546.2987060546875" y="-17.345911026000977" z="0.0" pitch="0.0" roll="0.0" yaw="-179.87489318847656" />
		<waypoint x="480.107421875" y="-13.990429878234863" z="0.0" pitch="0.0" roll="0.0" yaw="-179.87489318847656" />
		<waypoint x="364.559326171875" y="-13.764678955078125" z="0.0" pitch="0.0" roll="0.0" yaw="179.79132080078125" />
		<waypoint x="226.3528594970703" y="-20.261341094970703" z="0.0" pitch="0.0" roll="0.0" yaw="179.79132080078125" />
		<waypoint x="157.52694702148438" y="-20.01066017150879" z="0.0" pitch="0.0" roll="0.0" yaw="179.79132080078125" />
		<waypoint x="84.8033218383789" y="-23.245805740356445" z="0.0" pitch="0.0" roll="0.0" yaw="179.79132080078125" />
		<waypoint x="30.501333236694336" y="-23.048023223876953" z="0.0" pitch="0.0" roll="0.0" yaw="179.79132080078125" />
		<waypoint x="9.802495002746582" y="-50.33686447143555" z="0.0" pitch="360.0" roll="0.0" yaw="270.3822937011719" />
		<waypoint x="10.196639060974121" y="-104.19768524169922" z="0.0" pitch="0.0" roll="0.0" yaw="-88.51264953613281" />
	</route>
</routes>
