<?xml version="1.0"?>


<routes>
   <route id="1" map="Town01">
      <waypoint pitch="0.0" roll="0.0" x="121.72344970703125" y="59.17844009399414" yaw="0.0670308843255043" z="0.0" />
      <waypoint pitch="0.0" roll="0.0" x="249.13783264160156" y="59.3275032043457" yaw="0.0670308843255043" z="0.0" />
      <waypoint pitch="0.0" roll="0.0" x="315.4411315917969" y="59.40507507324219" yaw="0.0670308843255043" z="0.0" />
      <waypoint pitch="0.0" roll="0.0" x="334.6475524902344" y="75.26239013671875" yaw="89.9791030883789" z="0.0" />
      <waypoint pitch="0.0" roll="0.0" x="334.6621398925781" y="115.21650695800781" yaw="89.9791030883789" z="0.0" />
      <waypoint pitch="360.0" roll="0.0" x="312.11029052734375" y="129.5294189453125" yaw="180.18728637695312" z="0.0" />
      <waypoint pitch="360.0" roll="0.0" x="254.0718994140625" y="129.33969116210938" yaw="180.18728637695312" z="0.0" />
      <waypoint pitch="360.0" roll="0.0" x="130.1896514892578" y="128.9347381591797" yaw="180.18728637695312" z="0.0" />
      <waypoint pitch="360.0" roll="0.0" x="104.88580322265625" y="128.85202026367188" yaw="180.18728637695312" z="0.0" />
      <waypoint pitch="360.0" roll="0.0" x="92.3873062133789" y="113.84988403320312" yaw="269.99127197265625" z="0.0" />
      <waypoint pitch="360.0" roll="0.0" x="92.3824462890625" y="81.85515594482422" yaw="269.99127197265625" z="0.0" />
   </route>

	   <route id="22" map="Town05">
      <waypoint pitch="0.0" roll="0.0" x="-188.04025268554688" y="111.89112091064453" yaw="-90.01580047607422" z="0.055450439453125" />
      <waypoint pitch="0.0" roll="0.0" x="-208.30966186523438" y="87.82836151123047" yaw="-179.9344482421875" z="0.0" />
      <waypoint pitch="0.0" roll="0.0" x="-241.00997924804688" y="87.77586364746094" yaw="181.5120849609375" z="0.0" />
      <waypoint pitch="0.0" roll="0.0" x="-254.27639770507812" y="85.51156616210938" yaw="197.85960388183594" z="0.0" />
      <waypoint pitch="0.0" roll="0.0" x="-263.63043212890625" y="80.72705841064453" yaw="223.03076171875" z="0.0" />
      <waypoint pitch="0.0" roll="0.0" x="-268.5516357421875" y="62.66376876831055" yaw="-90.5837631225586" z="0.0" />
      <waypoint pitch="0.0" roll="0.0" x="-268.9413146972656" y="24.41703224182129" yaw="-90.5837631225586" z="0.0" />
      <waypoint pitch="360.0" roll="0.0" x="-248.9698028564453" y="3.15533185005188" yaw="359.86053466796875" z="0.0" />
      <waypoint pitch="360.0" roll="0.0" x="-208.99082946777344" y="3.058021068572998" yaw="359.86053466796875" z="0.0" />
      <waypoint pitch="360.0" roll="0.0" x="-176.1170654296875" y="2.9780046939849854" yaw="359.86053466796875" z="0.0" />
      <waypoint pitch="360.0" roll="0.0" x="-147.84979248046875" y="2.909200668334961" yaw="359.86053466796875" z="0.0" />
      <waypoint pitch="0.0" roll="0.0" x="-128.00921630859375" y="24.07300567626953" yaw="89.48860931396484" z="0.0" />
      <waypoint pitch="360.0" roll="0.0" x="-127.61460876464844" y="68.28477478027344" yaw="89.48860931396484" z="0.0" />
      <waypoint pitch="360.0" roll="0.0" x="-103.57777404785156" y="91.44818878173828" yaw="0.0655517578125" z="0.0" />
      <waypoint pitch="360.0" roll="0.0" x="-72.44071197509766" y="91.48381042480469" yaw="0.0655517578125" z="0.0" />
      <waypoint pitch="360.0" roll="0.0" x="-33.27450942993164" y="91.52861785888672" yaw="0.0655517578125" z="0.0" />
      <waypoint pitch="360.0" roll="0.0" x="12.002772331237793" y="95.0804214477539" yaw="0.0655517578125" z="0.0" />
      <waypoint pitch="360.0" roll="0.0" x="28.0683650970459" y="109.37401580810547" yaw="90.02288818359375" z="1.52587890625e-05" />
      <waypoint pitch="360.0" roll="0.0" x="28.042499542236328" y="174.11727905273438" yaw="90.02288818359375" z="1.52587890625e-05" />
      <waypoint pitch="0.0" roll="0.0" x="56.768985748291016" y="201.84991455078125" yaw="0.28781425952911377" z="0.0" />
      <waypoint pitch="0.0" roll="0.0" x="206.57980346679688" y="96.56209564208984" yaw="-89.33536529541016" z="0.0" />
      <waypoint pitch="0.0" roll="0.0" x="206.49453735351562" y="-75.03238677978516" yaw="-90.66909790039062" z="0.0" />
      <waypoint pitch="0.0" roll="0.0" x="206.3407745361328" y="-88.19845581054688" yaw="-90.66909790039062" z="0.0" />
   </route>

	<route id="16" map="Town05">
		<waypoint x="-107.1549301147461" y="-135.17100524902344" z="0.055450439453125" pitch="0.0" roll="0.0" yaw="0.4425617456436157" />
		<waypoint x="-55.82278060913086" y="-107.06883239746094" z="0.055450439453125" pitch="0.0" roll="0.0" yaw="78.01778411865234" />
		<waypoint x="-54.57619857788086" y="-18.784204483032227" z="0.055450439453125" pitch="0.0" roll="0.0" yaw="89.66251373291016" />
		<waypoint x="-82.96070861816406" y="-4.248763084411621" z="0.0" pitch="0.0" roll="0.0" yaw="179.86053466796875" />
		<waypoint x="-121.49256134033203" y="-28.450117111206055" z="-1.52587890625e-05" pitch="360.0" roll="0.0" yaw="270.3935546875" />
		<waypoint x="-121.20869445800781" y="-69.77743530273438" z="-1.52587890625e-05" pitch="360.0" roll="0.0" yaw="270.3935546875" />
		<waypoint x="-120.95366668701172" y="-106.90546417236328" z="-1.52587890625e-05" pitch="360.0" roll="0.0" yaw="270.3935546875" />
		<waypoint x="-120.85247802734375" y="-121.63728332519531" z="-1.52587890625e-05" pitch="360.0" roll="0.0" yaw="270.3935546875" />
		<waypoint x="-148.21914672851562" y="-142.48841857910156" z="0.055450439453125" pitch="360.0" roll="0.0" yaw="180.4425506591797" />
		<waypoint x="-179.97544860839844" y="-135.5600128173828" z="0.055450439453125" pitch="360.0" roll="0.0" yaw="500.95001220703125" />
		<waypoint x="-191.57589721679688" y="-112.43180084228516" z="0.055450439453125" pitch="360.0" roll="0.0" yaw="452.323974609375" />
		<waypoint x="-191.5911407470703" y="-72.66250610351562" z="0.055450439453125" pitch="360.0" roll="0.0" yaw="89.98419952392578" />
		<waypoint x="-191.57650756835938" y="-19.605398178100586" z="0.055450439453125" pitch="360.0" roll="0.0" yaw="89.98419952392578" />
		<waypoint x="-191.56614685058594" y="17.988962173461914" z="0.055450439453125" pitch="360.0" roll="0.0" yaw="89.98419952392578" />
		<waypoint x="-191.55227661132812" y="68.30430603027344" z="0.055450439453125" pitch="360.0" roll="0.0" yaw="89.98419952392578" />
		<waypoint x="-214.2361602783203" y="87.82157897949219" z="0.0" pitch="0.0" roll="0.0" yaw="-179.9344482421875" />
		<waypoint x="-268.9549255371094" y="23.081527709960938" z="0.0" pitch="0.0" roll="0.0" yaw="-90.5837631225586" />
		<waypoint x="-268.6734313964844" y="-15.193982124328613" z="0.0" pitch="360.0" roll="0.0" yaw="270.41680908203125" />
		<waypoint x="-268.43231201171875" y="-48.34157180786133" z="0.0" pitch="360.0" roll="0.0" yaw="270.41680908203125" />
		<waypoint x="-267.04107666015625" y="-65.4446792602539" z="0.0" pitch="360.0" roll="0.0" yaw="-73.23945617675781" />
		<waypoint x="-260.1826477050781" y="-77.5333480834961" z="0.0" pitch="360.0" roll="0.0" yaw="-47.62406921386719" />
		<waypoint x="-249.61282348632812" y="-85.22728729248047" z="0.0" pitch="360.0" roll="0.0" yaw="-24.657318115234375" />
		<waypoint x="-235.8647003173828" y="-88.24884033203125" z="0.0" pitch="360.0" roll="0.0" yaw="-0.133392333984375" />
		<waypoint x="-216.21676635742188" y="-88.219482421875" z="0.0" pitch="360.0" roll="0.0" yaw="0.0863037109375" />
		<waypoint x="-174.30133056640625" y="-88.1563491821289" z="0.0" pitch="360.0" roll="0.0" yaw="0.0863037109375" />
		<waypoint x="-148.4835662841797" y="-88.11746215820312" z="0.0" pitch="360.0" roll="0.0" yaw="0.0863037109375" />
		<waypoint x="-109.69560241699219" y="-88.05902862548828" z="0.0" pitch="360.0" roll="0.0" yaw="0.0863037109375" />
		<waypoint x="-68.89604949951172" y="-84.49757385253906" z="0.0" pitch="360.0" roll="0.0" yaw="0.0863037109375" />
		<waypoint x="-54.86957550048828" y="-68.5902328491211" z="0.055450439453125" pitch="0.0" roll="0.0" yaw="89.66251373291016" />
		<waypoint x="-54.59004211425781" y="-21.13409996032715" z="0.055450439453125" pitch="0.0" roll="0.0" yaw="89.66251373291016" />
	</route>
	<route id="2" map="Town02">
		<waypoint x="193.54002380371094" y="177.56105041503906" z="0.0" pitch="0.0" roll="0.0" yaw="-90.00971221923828" />
		<waypoint x="193.5331573486328" y="136.79953002929688" z="0.0" pitch="0.0" roll="0.0" yaw="-90.0096435546875" />
		<waypoint x="179.22007751464844" y="105.6793212890625" z="0.0" pitch="0.0" roll="0.0" yaw="-179.98373413085938" />
		<waypoint x="148.59690856933594" y="105.67062377929688" z="0.0" pitch="0.0" roll="0.0" yaw="-179.98373413085938" />
		<waypoint x="87.002685546875" y="105.6531753540039" z="0.0" pitch="0.0" roll="0.0" yaw="-179.98377990722656" />
		<waypoint x="49.58901596069336" y="105.642578125" z="0.0" pitch="0.0" roll="0.0" yaw="-179.98377990722656" />
		<waypoint x="5.824886798858643" y="105.63021850585938" z="0.0" pitch="0.0" roll="0.0" yaw="-179.9838104248047" />
		<waypoint x="-7.7668561935424805" y="120.43354797363281" z="0.0" pitch="360.0" roll="0.0" yaw="89.93208312988281" />
		<waypoint x="-7.701048374176025" y="175.94989013671875" z="0.0" pitch="360.0" roll="0.0" yaw="89.93208312988281" />
		<waypoint x="7.700477123260498" y="192.22926330566406" z="0.0" pitch="0.0" roll="0.0" yaw="-0.046491142362356186" />
		<waypoint x="31.93472671508789" y="192.20960998535156" z="0.0" pitch="0.0" roll="0.0" yaw="-0.046491142362356186" />
		<waypoint x="41.703643798828125" y="204.47900390625" z="0.0" pitch="360.0" roll="0.0" yaw="90.02497863769531" />
		<waypoint x="41.69392013549805" y="226.78408813476562" z="0.0" pitch="360.0" roll="0.0" yaw="90.02497863769531" />
		<waypoint x="41.68247985839844" y="253.0362548828125" z="0.0" pitch="360.0" roll="0.0" yaw="90.02497863769531" />
		<waypoint x="41.66613006591797" y="290.5375671386719" z="0.0" pitch="360.0" roll="0.0" yaw="90.02497863769531" />
		<waypoint x="57.2176628112793" y="306.9637756347656" z="0.0" pitch="0.0" roll="0.0" yaw="0.025878889486193657" />
		<waypoint x="117.23860931396484" y="306.9908752441406" z="0.0" pitch="0.0" roll="0.0" yaw="0.025878889486193657" />
		<waypoint x="170.76492309570312" y="307.01513671875" z="0.0" pitch="0.0" roll="0.0" yaw="0.026003306731581688" />
		<waypoint x="193.5585479736328" y="286.60009765625" z="0.0" pitch="0.0" roll="0.0" yaw="-90.00978088378906" />
		<waypoint x="193.5523223876953" y="250.09652709960938" z="0.0" pitch="0.0" roll="0.0" yaw="-90.00971221923828" />
		<waypoint x="193.5484619140625" y="227.3289031982422" z="0.0" pitch="0.0" roll="0.0" yaw="-90.00971221923828" />
		<waypoint x="193.54443359375" y="203.47640991210938" z="0.0" pitch="0.0" roll="0.0" yaw="-90.00971221923828" />
		<waypoint x="178.44085693359375" y="188.09071350097656" z="0.0" pitch="360.0" roll="0.0" yaw="179.95350646972656" />
		<waypoint x="147.9085693359375" y="188.11549377441406" z="0.0" pitch="360.0" roll="0.0" yaw="179.95350646972656" />
		<waypoint x="132.08602905273438" y="202.11294555664062" z="0.0" pitch="360.0" roll="0.0" yaw="90.16149139404297" />
		<waypoint x="132.0171356201172" y="226.55282592773438" z="0.0" pitch="360.0" roll="0.0" yaw="90.16149139404297" />
		<waypoint x="146.93177795410156" y="241.22605895996094" z="0.0" pitch="360.0" roll="0.0" yaw="0.1973114013671875" />
		<waypoint x="178.1513671875" y="241.3335723876953" z="0.0" pitch="360.0" roll="0.0" yaw="0.1973114013671875" />
	</route>

	<route id="9" map="Town01">
		<waypoint x="338.6842956542969" y="176.00216674804688" z="0.0" pitch="360.0" roll="0.0" yaw="269.9790954589844" />
		<waypoint x="338.6741638183594" y="148.27407836914062" z="0.0" pitch="360.0" roll="0.0" yaw="269.9790954589844" />
		<waypoint x="338.6649475097656" y="122.97425842285156" z="0.0" pitch="360.0" roll="0.0" yaw="269.9790954589844" />
		<waypoint x="338.6495666503906" y="80.78645324707031" z="0.0" pitch="360.0" roll="0.0" yaw="269.9790954589844" />
		<waypoint x="320.7290344238281" y="55.4112548828125" z="0.0" pitch="360.0" roll="0.0" yaw="180.06703186035156" />
		<waypoint x="212.8487548828125" y="55.2850456237793" z="0.0" pitch="360.0" roll="0.0" yaw="180.06703186035156" />
		<waypoint x="173.32044982910156" y="55.238800048828125" z="0.0" pitch="360.0" roll="0.0" yaw="180.06703186035156" />
		<waypoint x="157.9892120361328" y="40.340248107910156" z="0.0" pitch="360.0" roll="0.0" yaw="269.930908203125" />
		<waypoint x="157.95950317382812" y="15.695076942443848" z="0.0" pitch="360.0" roll="0.0" yaw="269.930908203125" />
		<waypoint x="173.07179260253906" y="1.702979564666748" z="0.0" pitch="360.0" roll="0.0" yaw="0.029052734375" />
		<waypoint x="280.5867614746094" y="1.7575045824050903" z="0.0" pitch="360.0" roll="0.0" yaw="0.029052734375" />
		<waypoint x="312.7760314941406" y="1.7738289833068848" z="0.0" pitch="360.0" roll="0.0" yaw="0.029052734375" />
		<waypoint x="349.441162109375" y="1.7924233675003052" z="0.0" pitch="360.0" roll="0.0" yaw="0.029052734375" />
		<waypoint x="380.9141540527344" y="1.8083845376968384" z="0.0" pitch="360.0" roll="0.0" yaw="0.029052734375" />
		<waypoint x="392.23345947265625" y="14.538103103637695" z="0.0" pitch="360.0" roll="0.0" yaw="89.95734405517578" />
		<waypoint x="392.3465576171875" y="166.41212463378906" z="0.0" pitch="360.0" roll="0.0" yaw="89.95733642578125" />
		<waypoint x="392.4117431640625" y="253.89410400390625" z="0.0" pitch="360.0" roll="0.0" yaw="89.95718383789062" />
		<waypoint x="392.44500732421875" y="298.43646240234375" z="0.0" pitch="360.0" roll="0.0" yaw="89.95718383789062" />
		<waypoint x="378.6864318847656" y="326.48663330078125" z="0.0" pitch="360.0" roll="0.0" yaw="180.0353240966797" />
		<waypoint x="365.12506103515625" y="326.478271484375" z="0.0" pitch="360.0" roll="0.0" yaw="180.0353240966797" />
	</route>

</routes>
